-------------------------------------------------------
          Amber 16 SANDER                              2016
          -------------------------------------------------------

  [-O]verwriting output

File Assignments:

 Here is the input file:

Production
 &cntrl
  imin=0,
  ntx=5,
  irest=1,
  nstlim=8000,
  dt=0.002,
  ntf=2,
  ntc=2,
  temp0=300.0,
  ntpr=100,
  ntwx=100,
  cut=8.0,
  ntb=2,
  ntp=1,
  ntt=3,
  gamma_ln=2.0,
  ig=-1,
 /

--------------------------------------------------------------------------------
   1.  RESOURCE   USE:
--------------------------------------------------------------------------------

 getting box info from netcdf restart file
 NATOM  =   36962 NTYPES =      20 NBONH =   36122 MBONA  =     870
 NTHETH =    1854 MTHETA =    1179 NPHIH =    3730 MPHIA  =    3525
 NHPARM =       0 NPARM  =       0 NNB   =   56263 NRES   =   11871
 NBONA  =     870 NTHETA =    1179 NPHIA =    3525 NUMBND =      74
 NUMANG =     171 NPTRA  =     179 NATYP =      39 NPHB   =       1
 IFBOX  =       1 NMXRS  =      24 IFCAP =       0 NEXTRA =       0
 NCOPY  =       0

     BOX TYPE: RECTILINEAR
Note: ig = -1. Setting random seed to    30841 based on wallclock time in microseconds.

--------------------------------------------------------------------------------
   2.  CONTROL  DATA  FOR  THE  RUN
--------------------------------------------------------------------------------

default_name

General flags:
     imin    =       0, nmropt  =       0

Nature and format of input:
     ntx     =       5, irest   =       1, ntrx    =       1

Nature and format of output:
     ntxo    =       2, ntpr    =     100, ntrx    =       1, ntwr    =    8000
     iwrap   =       0, ntwx    =     100, ntwv    =       0, ntwe    =       0
     ioutfm  =       1, ntwprt  =       0, idecomp =       0, rbornstat=      0

Potential function:
     ntf     =       2, ntb     =       2, igb     =       0, nsnb    =      25
     ipol    =       0, gbsa    =       0, iesp    =       0
     dielc   =   1.00000, cut     =   8.00000, intdiel =   1.00000

Frozen or restrained atoms:
     ibelly  =       0, ntr     =       0

Molecular dynamics:
     nstlim  =      8000, nscm    =      1000, nrespa  =         1
     t       =   0.00000, dt      =   0.00200, vlimit  =  20.00000

Langevin dynamics temperature regulation:
     ig      =   30841
     temp0   = 300.00000, tempi   =   0.00000, gamma_ln=   2.00000

Pressure regulation:
     ntp     =       1
     pres0   =   1.00000, comp    =  44.60000, taup    =   1.00000

SHAKE:
     ntc     =       2, jfastw  =       0
     tol     =   0.00001

Ewald parameters:
     verbose =       0, ew_type =       0, nbflag  =       1, use_pme =       1
     vdwmeth =       1, eedmeth =       1, netfrc  =       1
     Box X =   79.094   Box Y =   69.334   Box Z =   84.508
     Alpha =   90.000   Beta  =   90.000   Gamma =   90.000
     NFFT1 =   80       NFFT2 =   72       NFFT3 =   90
     Cutoff=    8.000   Tol   =0.100E-04
     Ewald Coefficient =  0.34864
     Interpolation order =    4

--------------------------------------------------------------------------------
   3.  ATOMIC COORDINATES AND VELOCITIES
--------------------------------------------------------------------------------

default_name
 begin time read from input coords =    20.000 ps

 Number of triangulated 3-point waters found:    11771

     Sum of charges from parm topology file =   0.00001993
     Forcing neutrality...

--------------------------------------------------------------------------------
   4.  RESULTS
 NSTEP =      100   TIME(PS) =      20.200  TEMP(K) =   298.64  PRESS =  -432.7
 Etot   =    -89260.3036  EKtot   =     22184.8147  EPtot      =   -111445.1182
 BOND   =       315.5497  ANGLE   =       863.9567  DIHED      =      1260.2082
 1-4 NB =       366.2115  1-4 EEL =      5362.4369  VDWAALS    =     15691.2359
 EELEC  =   -135304.7172  EHBOND  =         0.0000  RESTRAINT  =         0.0000
 EKCMT  =     10500.1919  VIRIAL  =     14811.0165  VOLUME     =    461462.0717
                                                    Density    =         0.8062
 Ewald error estimate:   0.4201E-04
 ------------------------------------------------------------------------------

      A V E R A G E S   O V E R    8000 S T E P S

 NSTEP =     8000   TIME(PS) =      36.000  TEMP(K) =   300.37  PRESS =  -249.0
 Etot   =    -90672.2911  EKtot   =     22313.1610  EPtot      =   -112985.4521
 BOND   =       321.7373  ANGLE   =       884.7545  DIHED      =      1253.3173
 1-4 NB =       376.0416  1-4 EEL =      5345.0276  VDWAALS    =     15657.5835
 EELEC  =   -136823.9138  EHBOND  =         0.0000  RESTRAINT  =         0.0000
 EKCMT  =     10573.9118  VIRIAL  =     12855.9066  VOLUME     =    417487.7000
                                                    Density    =         0.8934
 Ewald error estimate:   0.5213E-04
 ------------------------------------------------------------------------------

      R M S  F L U C T U A T I O N S

 NSTEP =     8000   TIME(PS) =      36.000  TEMP(K) =     1.53  PRESS =   118.2
 Etot   =       684.7831  EKtot   =       113.8978  EPtot      =       706.6179
 BOND   =        14.5198  ANGLE   =        21.6964  DIHED      =        13.6063
 1-4 NB =         7.7417  1-4 EEL =        20.7954  VDWAALS    =       141.2037
 EELEC  =       733.0292  EHBOND  =         0.0000  RESTRAINT  =         0.0000
 EKCMT  =        80.5267  VIRIAL  =      1153.4125  VOLUME     =     21245.6218
                                                    Density    =         0.0446
 Ewald error estimate:   0.3811E-04
 ------------------------------------------------------------------------------
